trunk/ipss.plugin.test/testData/psse/MXV-1120MW_022008.raw
0,   100.00          / PSS/E-30.0    MON, FEB 18 2008  11:26
CASO BASE. CURSO LAB SISTEMAS DE POTENCIA
ESC INGENERIA ELÉCTRICA UCR
     1,'EQN-U1      ',  13.8000,3,     0.000,     0.000,   1,   1,0.97500,   0.0000,   1
    10,'UNO-230     ', 230.0000,1,     0.000,     0.000,   1,   1,0.99777, -19.8725,   1
    11,'UNO-34.5    ',  34.5000,1,     0.000,     0.000,   1,   1,0.98326, -23.3133,   1
    20,'DOS-230     ', 230.0000,1,     0.000,     0.000,   1,   1,0.98244, -20.6596,   1
    21,'DOS-34.5    ',  34.5000,1,     0.000,     0.000,   1,   1,0.95932, -25.4862,   1
    30,'TRES-230    ', 230.0000,1,     0.000,     0.000,   1,   1,0.97796, -19.8113,   1
    31,'TRES-138    ', 138.0000,1,     0.000,     0.000,   1,   1,0.97263, -19.3580,   1
    32,'TRES-34.5   ',  34.5000,1,     0.000,     0.000,   1,   1,0.95530, -23.2978,   1
    38,'TRES-U3     ',  13.8000,2,     0.000,     0.000,   1,   1,1.02000, -15.6882,   1
    40,'TRES-U5     ',  13.8000,2,     0.000,     0.000,   1,   1,1.02000, -19.3580,   1
    41,'CUATRO-138  ', 138.0000,1,     0.000,     0.000,   1,   1,0.98009, -18.0234,   1
    42,'CUATRO-34.5 ',  34.5000,1,     0.000,     0.000,   1,   1,0.95861, -21.8799,   1
    44,'CUATRO-U1   ',  13.8000,2,     0.000,     0.000,   1,   1,1.00000, -14.0549,   1
    45,'CUATRO-U2   ',  13.8000,2,     0.000,     0.000,   1,   1,1.00000, -14.0856,   1
    46,'CUATRO-U3   ',  13.8000,2,     0.000,     0.000,   1,   1,1.00000, -14.0399,   1
    50,'CINCO-138   ', 138.0000,1,     0.000,     0.000,   1,   1,0.96233, -20.0237,   1
    51,'CINCO-34.5  ',  34.5000,1,     0.000,     0.000,   1,   1,0.93584, -26.5834,   1
    60,'SEIS-138    ', 138.0000,1,     0.000,     0.000,   1,   1,0.94417, -21.2130,   1
    61,'SEIS-34.5   ',  34.5000,1,     0.000,     0.000,   1,   1,0.92143, -25.7053,   1
    70,'SIETE-138   ', 138.0000,1,     0.000,     0.000,   1,   1,0.93357, -21.8547,   1
    71,'SIETE-34.5  ',  34.5000,1,     0.000,     0.000,   1,   1,0.90448, -27.7332,   1
    80,'OCHO-138    ', 138.0000,1,     0.000,     0.000,   1,   1,0.93121, -21.9057,   1
    81,'OCHO-34.5   ',  34.5000,1,     0.000,     0.000,   1,   1,0.90587, -28.7653,   1
    90,'NUEVE-138   ', 138.0000,1,     0.000,     0.000,   1,   1,0.93675, -20.9764,   1
    91,'NUEVE-34.5  ',  34.5000,1,     0.000,     0.000,   1,   1,0.91300, -26.9441,   1
   100,'DIEZ-138    ', 138.0000,1,     0.000,     0.000,   1,   1,0.94548, -20.0199,   1
   102,'DIEZ-34.5   ',  34.5000,1,     0.000,     0.000,   1,   1,0.91671, -26.0421,   1
   105,'DIEZ-34A    ',  34.5000,1,     0.000,     0.000,   1,   1,0.91781, -23.2818,   1
   110,'ONCE-230    ', 230.0000,1,     0.000,     0.000,   1,   1,0.95169, -17.8162,   1
   111,'ONCE-138    ', 138.0000,1,     0.000,     0.000,   1,   1,0.94689, -19.7018,   1
   112,'ONCE-34.5   ',  34.5000,1,     0.000,     0.000,   1,   1,0.91199, -25.7252,   1
   120,'DOCE-230    ', 230.0000,1,     0.000,     0.000,   1,   1,0.95103, -17.8159,   1
   121,'DOCE-34.5   ',  34.5000,1,     0.000,     0.000,   1,   1,0.91427, -21.8891,   1
   130,'TRECE-138   ', 138.0000,1,     0.000,     0.000,   1,   1,0.94064, -20.3422,   1
   131,'TRECE-34.5  ',  34.5000,1,     0.000,     0.000,   1,   1,0.91805, -25.7507,   1
   133,'TRECE-U12   ',   4.2000,2,     0.000,     0.000,   1,   1,0.93118, -23.2132,   1
   134,'TRECE-U34   ',   4.2000,2,     0.000,     0.000,   1,   1,0.93118, -23.2132,   1
   135,'TRECE-U56   ',   4.2000,2,     0.000,     0.000,   1,   1,0.93990, -21.9782,   1
   140,'CATORCE-138 ', 138.0000,1,     0.000,     0.000,   1,   1,0.93534, -20.8179,   1
   141,'CATORCE-34.5',  34.5000,1,     0.000,     0.000,   1,   1,0.88572, -29.0697,   1
   150,'QUINCE-230  ', 230.0000,1,     0.000,     0.000,   1,   1,0.94879, -18.1139,   1
   151,'QUINCE-138  ', 138.0000,1,     0.000,     0.000,   1,   1,0.93980, -20.5352,   1
   152,'QUINCE-34.5 ',  34.5000,1,     0.000,     0.000,   1,   1,0.96047, -22.5141,   1
   160,'DIECISEIS-13', 138.0000,1,     0.000,     0.000,   1,   1,0.93114, -21.2297,   1
   161,'DIECISEIS-34',  34.5000,1,     0.000,     0.000,   1,   1,0.89921, -27.2852,   1
   170,'DIECISIE-138', 138.0000,1,     0.000,     0.000,   1,   1,0.93950, -20.3384,   1
   171,'DIECISIE-34.',  34.5000,1,     0.000,     0.000,   1,   1,0.87256, -28.6581,   1
   172,'DIECISIE-U12',  13.8000,2,     0.000,     0.000,   1,   1,0.95827, -15.6745,   1
   173,'DIECISIE-U3 ',  13.8000,2,     0.000,     0.000,   1,   1,0.96150, -14.5292,   1
   174,'DIECISIE-U4 ',  13.8000,2,     0.000,     0.000,   1,   1,0.96113, -14.5831,   1
   180,'DIECIOCH-138', 138.0000,1,     0.000,     0.000,   1,   1,0.92130, -21.3795,   1
   181,'DIECIOCH-34.',  34.5000,1,     0.000,     0.000,   1,   1,0.89260, -25.6711,   1
   190,'DIECINUE-230', 230.0000,1,     0.000,     0.000,   1,   1,0.98674, -12.9044,   1
   191,'DIECINUE-24.',  24.9000,1,     0.000,     0.000,   1,   1,0.98124, -12.9044,   1
   193,'DIECINUE-U12',  13.8000,2,     0.000,     0.000,   1,   1,1.02000, -10.3880,   1
   200,'VEINTE-230  ', 230.0000,1,     0.000,     0.000,   1,   1,0.96822, -15.2724,   1
   201,'VEINTE-138  ', 138.0000,1,     0.000,     0.000,   1,   1,0.95135, -17.2508,   1
   202,'VEINTE-34.5 ',  34.5000,1,     0.000,     0.000,   1,   1,0.91013, -23.2238,   1
   210,'VEINTIUN-230', 230.0000,1,     0.000,     0.000,   1,   1,1.00157, -11.0471,   1
   211,'VEINTIUN-138', 138.0000,1,     0.000,     0.000,   1,   1,0.99031, -13.5858,   1
   212,'VEINTIUN-34.',  34.5000,1,     0.000,     0.000,   1,   1,0.98830, -12.6964,   1
   220,'VEINTIDO-230', 230.0000,1,     0.000,     0.000,   1,   1,1.00676,  -9.5521,   1
   221,'VEINTIDO-34.',  34.5000,1,     0.000,     0.000,   1,   1,0.98070, -16.1360,   1
   230,'VEINTITR-230', 230.0000,1,     0.000,     0.000,   1,   1,1.00556, -10.6472,   1
   231,'VEINTITR-34.',  34.5000,1,     0.000,     0.000,   1,   1,1.00303,  -6.5840,   1
   233,'VEINTITR-U1 ',  13.8000,2,     0.000,     0.000,   1,   1,1.03500,  -7.9597,   1
   234,'VEINTITR-U2 ',  13.8000,2,     0.000,     0.000,   1,   1,1.03500,  -7.9961,   1
   235,'VEINTITR-U3 ',  13.8000,2,     0.000,     0.000,   1,   1,1.03500,  -5.3261,   1
   240,'VEINTICU-230', 230.0000,1,     0.000,     0.000,   1,   1,1.00577, -10.6230,   1
   241,'VEINTICU-U12',  13.8000,2,     0.000,     0.000,   1,   1,1.00000,  -7.2489,   1
   250,'VEINTICI-230', 230.0000,1,     0.000,     0.000,   1,   1,1.00415, -10.7801,   1
   251,'VEINTICI-34A',  34.5000,1,     0.000,     0.000,   1,   1,0.99607, -11.4429,   1
   252,'VEINTICI-34B',  34.5000,1,     0.000,     0.000,   1,   1,0.99061,  -1.3605,   1
   255,'VEINTICI-U1 ',  13.8000,2,     0.000,     0.000,   1,   1,1.03500,  -6.7999,   1
   256,'VEINTICI-U2 ',  13.8000,2,     0.000,     0.000,   1,   1,1.03500,  -6.8089,   1
   257,'VEINTICI-U3 ',  13.8000,2,     0.000,     0.000,   1,   1,1.03500,  -6.7954,   1
   260,'VEINTISE-230', 230.0000,2,     0.000,     0.000,   1,   1,1.01348,  -8.8756,   1
   261,'VEINTISE-34.',  34.5000,2,     0.000,     0.000,   1,   1,1.01427,  -6.8702,   1
   263,'VEINTISE-U1 ',  13.8000,2,     0.000,     0.000,   1,   1,1.03500,  -3.0166,   1
   264,'VEINTISE-U2 ',  13.8000,2,     0.000,     0.000,   1,   1,1.03500,  -3.0773,   1
   265,'VEINTISE-U3 ',  13.8000,2,     0.000,     0.000,   1,   1,1.03500,  -4.4961,   1
   270,'VEINTISI-230', 230.0000,2,     0.000,     0.000,   1,   1,0.98184, -13.3711,   1
   271,'VEINTISI-24.',  24.9000,2,     0.000,     0.000,   1,   1,0.96189, -10.7864,   1
   280,'VEINTIOC-230', 230.0000,2,     0.000,     0.000,   1,   1,0.97250, -14.6493,   1
   281,'VEINTIOC-34A',  34.5000,2,     0.000,     0.000,   1,   1,0.95285, -17.6663,   1
   282,'VEINTIOC-34B',  34.5000,2,     0.000,     0.000,   1,   1,0.96979, -10.3645,   1
   285,'VEINTIOC-U1 ',  13.8000,2,     0.000,     0.000,   1,   1,1.01000, -11.2071,   1
   286,'VEINTIOC-U2 ',  13.8000,2,     0.000,     0.000,   1,   1,1.00655,  -5.6825,   1
   290,'VEINTINU-138', 138.0000,1,     0.000,     0.000,   1,   1,0.98611, -17.1146,   1
   291,'VEINTINU-34.',  34.5000,1,     0.000,     0.000,   1,   1,0.96056, -17.9494,   1
   300,'TREINTA-138 ', 138.0000,1,     0.000,     0.000,   1,   1,0.99473, -16.0995,   1
   301,'TREINTA-34.5',  34.5000,1,     0.000,     0.000,   1,   1,0.98845, -17.5014,   1
   303,'TREINTA-U1  ',  13.8000,2,     0.000,     0.000,   1,   1,1.00000, -12.4480,   1
   304,'TREINTA-U2  ',  13.8000,2,     0.000,     0.000,   1,   1,1.00000, -12.4745,   1
   305,'TREINTA-U3  ',  13.8000,2,     0.000,     0.000,   1,   1,1.00000, -12.4480,   1
   310,'TREINTAU-138', 138.0000,1,     0.000,     0.000,   1,   1,0.99697, -14.5410,   1
   311,'TREINTAU-34.',  34.5000,1,     0.000,     0.000,   1,   1,0.96950, -18.9924,   1
   313,'TREINTAU-U1 ',  13.8000,2,     0.000,     0.000,   1,   1,1.03000,  -9.1039,   1
   314,'TREINTAU-U2 ',  13.8000,2,     0.000,     0.000,   1,   1,1.03000,  -9.1039,   1
   320,'TREINTAD-138', 138.0000,1,     0.000,     0.000,   1,   1,1.00355, -12.3616,   1
   321,'TREINTAD-34.',  34.5000,1,     0.000,     0.000,   1,   1,0.98159, -16.5126,   1
   325,'TREINTAD-U3 ',  13.8000,2,     0.000,     0.000,   1,   1,1.01500,  -6.9839,   1
   326,'TREINTAD-U4 ',  13.8000,2,     0.000,     0.000,   1,   1,1.01500,  -6.5705,   1
   327,'TREINTAD-U5 ',  13.8000,2,     0.000,     0.000,   1,   1,1.01500,  -7.3798,   1
   330,'TREINTAT-230', 230.0000,1,     0.000,     0.000,   1,   1,1.01164,  -9.0793,   1
   340,'TREINTAC-34.',  34.5000,1,     0.000,     0.000,   1,   1,0.96657, -22.3843,   1
   341,'TREINTAC-U1 ',  13.8000,2,     0.000,     0.000,   1,   1,1.01794, -19.4131,   1
   342,'TREINTAC-U2 ',  13.8000,2,     0.000,     0.000,   1,   1,1.01794, -19.4131,   1
   350,'TREINTACI-34',  34.5000,1,     0.000,     0.000,   1,   1,1.02416,  -6.1829,   1
   351,'TREINTAC-U12',  13.8000,2,     0.000,     0.000,   1,   1,1.02000,  -1.6512,   1
  1010,'FIC-EQ-NORTE', 230.0000,1,     0.000,     0.000,   1,   1,0.95416,  -0.5544,   1
  1020,'EQ-NORTE    ', 230.0000,1,     0.000,     0.000,   1,   1,0.98290,  -3.8755,   1
  3010,'EQS-U1      ',  13.8000,2,     0.000,     0.000,   1,   1,1.01200, -16.2181,   1
  3020,'EQ-SUR      ', 230.0000,1,     0.000,     0.000,   1,   1,1.00132, -19.3610,   1
  3030,'FIC-EQ-SUR  ', 230.0000,1,     0.000,     0.000,   1,   1,1.01180, -16.8304,   1
0 / END OF BUS DATA, BEGIN LOAD DATA
    11,'1 ',1,   1,   1,    29.700,     6.300,     0.000,     0.000,     0.000,     0.000,   1
    21,'1 ',1,   1,   1,    40.000,     9.500,     0.000,     0.000,     0.000,     0.000,   1
    32,'1 ',1,   1,   1,    16.000,     3.600,     0.000,     0.000,     0.000,     0.000,   1
    42,'1 ',1,   1,   1,     8.900,     2.600,     0.000,     0.000,     0.000,     0.000,   1
    51,'1 ',1,   1,   1,    85.500,    15.700,     0.000,     0.000,     0.000,     0.000,   1
    61,'1 ',1,   1,   1,    34.300,     9.200,     0.000,     0.000,     0.000,     0.000,   1
    71,'1 ',1,   1,   1,    78.300,    19.800,     0.000,     0.000,     0.000,     0.000,   1
    80,'1 ',1,   1,   1,     9.900,     2.900,     0.000,     0.000,     0.000,     0.000,   1
    81,'1 ',1,   1,   1,    92.900,    15.600,     0.000,     0.000,     0.000,     0.000,   1
    91,'1 ',1,   1,   1,    48.500,     9.300,     0.000,     0.000,     0.000,     0.000,   1
   100,'1 ',1,   1,   1,    18.000,     4.200,     0.000,     0.000,     0.000,     0.000,   1
   102,'1 ',1,   1,   1,    35.800,     8.500,     0.000,     0.000,     0.000,     0.000,   1
   105,'1 ',1,   1,   1,    24.900,    12.100,     0.000,     0.000,     0.000,     0.000,   1
   112,'1 ',1,   1,   1,    32.900,     7.700,     0.000,     0.000,     0.000,     0.000,   1
   121,'1 ',1,   1,   1,    25.100,     8.800,     0.000,     0.000,     0.000,     0.000,   1
   121,'2 ',1,   1,   1,    -7.800,     0.000,     0.000,     0.000,     0.000,     0.000,   1
   130,'1 ',1,   1,   1,     9.000,     2.000,     0.000,     0.000,     0.000,     0.000,   1
   131,'1 ',1,   1,   1,    75.200,    18.800,     0.000,     0.000,     0.000,     0.000,   1
   141,'1 ',1,   1,   1,    89.400,    26.600,     0.000,     0.000,     0.000,     0.000,   1
   150,'1 ',1,   1,   1,    60.000,    22.200,     0.000,     0.000,     0.000,     0.000,   1
   152,'1 ',1,   1,   1,    51.400,    14.100,     0.000,     0.000,     0.000,     0.000,   1
   161,'1 ',1,   1,   1,    61.000,    16.600,     0.000,     0.000,     0.000,     0.000,   1
   171,'1 ',1,   1,   1,    46.700,    19.600,     0.000,     0.000,     0.000,     0.000,   1
   181,'1 ',1,   1,   1,    42.500,    16.100,     0.000,     0.000,     0.000,     0.000,   1
   191,'1 ',1,   1,   1,     7.700,     1.500,     0.000,     0.000,     0.000,     0.000,   1
   191,'2 ',1,   1,   1,    -7.700,     0.000,     0.000,     0.000,     0.000,     0.000,   1
   202,'1 ',1,   1,   1,    53.000,    19.300,     0.000,     0.000,     0.000,     0.000,   1
   211,'1 ',1,   1,   1,    61.300,    14.200,     0.000,     0.000,     0.000,     0.000,   1
   212,'1 ',1,   1,   1,     7.400,     3.300,     0.000,     0.000,     0.000,     0.000,   1
   221,'1 ',1,   1,   1,    32.100,     5.400,     0.000,     0.000,     0.000,     0.000,   1
   231,'1 ',1,   1,   1,   -20.000,     0.000,     0.000,     0.000,     0.000,     0.000,   1
   251,'1 ',1,   1,   1,     9.900,     2.000,     0.000,     0.000,     0.000,     0.000,   1
   251,'2 ',1,   1,   1,    -7.000,     0.000,     0.000,     0.000,     0.000,     0.000,   1
   252,'1 ',1,   1,   1,   -44.000,     0.000,     0.000,     0.000,     0.000,     0.000,   1
   261,'1 ',1,   1,   1,     9.500,     3.200,     0.000,     0.000,     0.000,     0.000,   1
   263,'1 ',1,   1,   1,     2.600,     1.000,     0.000,     0.000,     0.000,     0.000,   1
   264,'1 ',1,   1,   1,     2.600,     1.000,     0.000,     0.000,     0.000,     0.000,   1
   265,'1 ',1,   1,   1,     1.300,     0.500,     0.000,     0.000,     0.000,     0.000,   1
   271,'1 ',1,   1,   1,    33.700,    11.300,     0.000,     0.000,     0.000,     0.000,   1
   271,'2 ',1,   1,   1,   -60.100,     0.000,     0.000,     0.000,     0.000,     0.000,   1
   281,'1 ',1,   1,   1,    13.700,     4.900,     0.000,     0.000,     0.000,     0.000,   1
   282,'1 ',1,   1,   1,   -18.500,     0.000,     0.000,     0.000,     0.000,     0.000,   1
   291,'1 ',1,   1,   1,    15.000,     6.200,     0.000,     0.000,     0.000,     0.000,   1
   291,'2 ',1,   1,   1,   -11.500,     0.000,     0.000,     0.000,     0.000,     0.000,   1
   301,'1 ',1,   1,   1,     6.100,     1.500,     0.000,     0.000,     0.000,     0.000,   1
   311,'1 ',1,   1,   1,    46.500,    14.700,     0.000,     0.000,     0.000,     0.000,   1
   321,'1 ',1,   1,   1,    38.700,    10.300,     0.000,     0.000,     0.000,     0.000,   1
  1010,'1 ',1,   1,   1,  1779.900,     0.000,     0.000,     0.000,     0.000,     0.000,   2
  3030,'1 ',1,   1,   1,   670.000,     0.000,     0.000,     0.000,     0.000,     0.000,   3
0 / END OF LOAD DATA, BEGIN GENERATOR DATA
     1,'HT',  1839.979,   -14.653,   950.000,  -950.000,0.97500,     0,  2200.000,   0.00000,   0.24700,   0.00000,   0.00000,1.00000,1,  100.0,  1980.000,     0.000,   4,1.0000
    38,'H1',    25.000,    19.823,    22.500,   -22.500,1.02000,     0,    37.500,   0.00000,   0.22000,   0.00000,   0.00000,1.00000,1,  100.0,    30.000,    12.000,   5,1.0000
    40,'H1',     0.000,    20.131,    22.500,   -22.500,1.02000,     0,    37.500,   0.00000,   0.19400,   0.00000,   0.00000,1.00000,1,  100.0,    30.000,    12.000,   5,1.0000
    44,'H1',    32.000,    22.295,    27.000,   -15.000,1.00000,     0,    45.000,   0.00000,   0.24000,   0.00000,   0.00000,1.00000,1,  100.0,    36.000,    15.000,   5,1.0000
    45,'H1',    32.000,    22.452,    27.000,   -15.000,1.00000,     0,    45.000,   0.00000,   0.24000,   0.00000,   0.00000,1.00000,1,  100.0,    36.000,    15.000,   5,1.0000
    46,'H1',    32.000,    22.408,    27.500,   -20.800,1.00000,     0,    46.000,   0.00000,   0.24400,   0.00000,   0.00000,1.00000,1,  100.0,    32.000,    15.000,   5,1.0000
   133,'T1',     4.000,     2.000,     2.000,    -2.000,1.02500,     0,     7.420,   0.00000,   0.24000,   0.00000,   0.00000,1.00000,1,  100.0,     4.000,     2.000,   5,1.0000
   134,'T1',     4.000,     2.000,     2.000,    -2.000,1.02500,     0,     7.420,   0.00000,   0.24000,   0.00000,   0.00000,1.00000,1,  100.0,     4.000,     2.000,   5,1.0000
   135,'T1',     6.000,     3.000,     3.000,    -3.000,1.03000,     0,     9.580,   0.00000,   0.22000,   0.00000,   0.00000,1.00000,1,  100.0,     6.000,     4.000,   5,1.0000
   172,'H1',    20.000,    12.000,    12.000,   -12.000,0.99000,     0,    23.350,   0.00000,   0.16200,   0.00000,   0.00000,1.00000,1,  100.0,    20.000,    10.000,   5,1.0000
   172,'H2',    20.000,    12.000,    12.000,   -12.000,0.99000,     0,    23.350,   0.00000,   0.16200,   0.00000,   0.00000,1.00000,1,  100.0,    20.000,    10.000,   5,1.0000
   173,'H1',    43.000,    23.000,    23.000,   -23.000,0.99000,     0,    54.100,   0.00000,   0.21000,   0.00000,   0.00000,1.00000,1,  100.0,    50.000,    30.000,   5,1.0000
   174,'H1',    43.000,    23.000,    23.000,   -23.000,0.99000,     0,    54.100,   0.00000,   0.21000,   0.00000,   0.00000,1.00000,1,  100.0,    50.000,    30.000,   5,1.0000
   193,'H1',    18.000,    12.000,    12.000,   -12.000,1.02000,     0,    22.200,   0.00000,   0.14500,   0.00000,   0.00000,1.00000,1,  100.0,    18.000,    10.000,   5,1.0000
   193,'H2',     0.000,     2.212,    12.000,   -12.000,1.02000,     0,    22.200,   0.00000,   0.14500,   0.00000,   0.00000,1.00000,1,  100.0,    18.000,    10.000,   5,1.0000
   233,'H1',    28.050,    18.175,    35.000,   -35.000,1.03500,     0,    68.240,   0.00000,   0.22900,   0.00000,   0.00000,1.00000,1,  100.0,    61.000,    28.000,   5,1.0000
   234,'H1',    28.050,    18.406,    35.000,   -35.000,1.03500,     0,    68.240,   0.00000,   0.22900,   0.00000,   0.00000,1.00000,1,  100.0,    61.000,    28.000,   5,1.0000
   235,'H1',    56.000,    20.284,    35.000,   -35.000,1.03500,     0,    68.240,   0.00000,   0.22900,   0.00000,   0.00000,1.00000,1,  100.0,    61.000,    52.000,   5,1.0000
   241,'H1',    15.000,     5.315,     5.400,    -5.050,1.00000,     0,    16.830,   0.00000,   0.20000,   0.00000,   0.00000,1.00000,1,  100.0,    16.000,     6.000,   5,1.0000
   255,'H1',    51.000,    24.344,    34.000,   -25.000,1.03500,     0,    61.730,   0.00000,   0.20700,   0.00000,   0.00000,1.00000,1,  100.0,    52.000,    30.000,   5,1.0000
   256,'H1',    51.000,    24.391,    34.000,   -25.000,1.03500,     0,    61.730,   0.00000,   0.20700,   0.00000,   0.00000,1.00000,1,  100.0,    52.000,    30.000,   5,1.0000
   257,'H1',    51.000,    24.321,    34.000,   -25.000,1.03500,     0,    61.730,   0.00000,   0.20700,   0.00000,   0.00000,1.00000,1,  100.0,    52.000,    30.000,   5,1.0000
   263,'G1',    56.000,    14.843,    24.600,   -20.600,1.03500,     0,    61.200,   0.00000,   0.23500,   0.00000,   0.00000,1.00000,1,  100.0,    56.000,    30.000,   5,1.0000
   264,'G1',    56.000,    14.930,    24.600,   -20.600,1.03500,     0,    61.200,   0.00000,   0.11500,   0.00000,   0.00000,1.00000,1,  100.0,    56.000,    30.000,   5,1.0000
   265,'G1',    28.000,     8.947,     9.000,    -9.000,1.03500,     0,    28.950,   0.00000,   0.23500,   0.00000,   0.00000,1.00000,1,  100.0,    28.000,    15.000,   5,1.0000
   285,'H1',     7.000,     4.705,     6.280,    -6.550,1.01000,     0,    13.650,   0.00000,   0.22100,   0.00000,   0.00000,1.00000,1,  100.0,    12.000,     6.000,   5,1.0000
   285,'H2',     7.000,     4.705,     6.280,    -6.550,1.01000,     0,    13.650,   0.00000,   0.22100,   0.00000,   0.00000,1.00000,1,  100.0,    12.000,     6.000,   5,1.0000
   286,'H1',    33.000,    10.000,    10.000,   -10.000,1.02000,     0,    36.520,   0.00000,   0.20100,   0.00000,   0.00000,1.00000,1,  100.0,    33.000,    18.000,   5,1.0000
   303,'H1',    52.000,    26.503,    36.000,   -36.000,1.00000,     0,    67.530,   0.00000,   0.19000,   0.00000,   0.00000,1.00000,1,  100.0,    60.000,    30.000,   5,1.0000
   304,'H1',    52.000,    26.672,    36.000,   -36.000,1.00000,     0,    67.530,   0.00000,   0.19000,   0.00000,   0.00000,1.00000,1,  100.0,    60.000,    30.000,   5,1.0000
   305,'H1',    52.000,    26.503,    36.000,   -36.000,1.00000,     0,    67.530,   0.00000,   0.19000,   0.00000,   0.00000,1.00000,1,  100.0,    60.000,    30.000,   5,1.0000
   313,'H1',    20.000,     7.942,    12.400,   -12.400,1.03000,     0,    23.530,   0.00000,   0.23000,   0.00000,   0.00000,1.00000,1,  100.0,    20.000,    10.000,   5,1.0000
   314,'H1',    20.000,     7.942,    12.400,   -12.400,1.03000,     0,    23.530,   0.00000,   0.23000,   0.00000,   0.00000,1.00000,1,  100.0,    20.000,    10.000,   5,1.0000
   325,'T1',    33.000,     5.566,    15.360,    -6.500,1.01500,     0,    39.380,   0.00000,   0.11000,   0.00000,   0.00000,1.00000,1,  100.0,    33.000,    20.000,   5,1.0000
   326,'T1',    35.500,     5.809,    17.000,    -8.000,1.01500,     0,    44.000,   0.00000,   0.13900,   0.00000,   0.00000,1.00000,1,  100.0,    35.500,    20.000,   5,1.0000
   327,'T1',    40.000,     6.994,    34.200,   -16.100,1.01500,     0,    56.250,   0.00000,   0.14400,   0.00000,   0.00000,1.00000,1,  100.0,    40.000,    25.000,   5,1.0000
   341,'T1',    15.000,    15.770,    15.770,    -9.960,1.03500,     0,    27.680,   0.00000,   0.16100,   0.00000,   0.00000,1.00000,1,  100.0,    15.000,    10.000,   5,1.0000
   342,'T1',    15.000,    15.770,    15.770,    -9.960,1.03500,     0,    27.680,   0.00000,   0.16100,   0.00000,   0.00000,1.00000,1,  100.0,    15.000,    10.000,   5,1.0000
   351,'G1',     8.500,     2.577,     6.830,    -6.830,1.02000,     0,    11.660,   0.00000,   0.17600,   0.00000,   0.00000,1.00000,1,  100.0,    10.500,     6.000,   5,1.0000
   351,'G2',     8.500,     2.577,     6.830,    -6.830,1.02000,     0,    11.660,   0.00000,   0.17600,   0.00000,   0.00000,1.00000,1,  100.0,    10.500,     6.000,   5,1.0000
  3010,'HT',   715.200,    16.979,   370.000,  -370.000,1.01200,     0,   850.000,   0.00000,   0.25300,   0.00000,   0.00000,1.00000,1,  100.0,   765.000,     0.000,   6,1.0000
0 / END OF GENERATOR DATA, BEGIN BRANCH DATA
    10,     20,'1 ',   0.01800,   0.10240,   0.19400,  200.00,  220.00,  240.00,  0.00000,  0.00000,  0.00000,  0.00000,1, 110.00,   1,1.0000
    10,   3020,'1 ',   0.00375,   0.02055,   0.04050,  200.00,  220.00,  240.00,  0.00000,  0.00000,  0.00000,  0.00000,1,  40.00,   1,1.0000
    20,     30,'1 ',   0.00930,   0.05260,   0.09940,  200.00,  220.00,  240.00,  0.00000,  0.00000,  0.00000,  0.00000,1,  65.00,   1,1.0000
    31,     41,'1 ',   0.00335,   0.01765,   0.02000,  220.00,  242.00,  264.00,  0.00000,  0.00000,  0.00000,  0.00000,1,  14.60,   1,1.0000
    31,     50,'1 ',   0.00490,   0.02150,   0.00580,  110.00,  121.00,  132.00,  0.00000,  0.00000,  0.00000,  0.00000,1,   8.90,   1,1.0000
    31,     60,'1 ',   0.01430,   0.06290,   0.01720,  110.00,  121.00,  132.00,  0.00000,  0.00000,  0.00000,  0.00000,1,  25.60,   1,1.0000
    41,    100,'1 ',   0.01920,   0.08450,   0.02320,  110.00,  121.00,  132.00,  0.00000,  0.00000,  0.00000,  0.00000,1,  34.40,   1,1.0000
    41,    111,'1 ',   0.02000,   0.08511,   0.02320,  110.00,  121.00,  132.00,  0.00000,  0.00000,  0.00000,  0.00000,1,  34.50,   1,1.0000
    41,    290,'1 ',   0.00550,   0.02410,   0.00660,  110.00,  121.00,  132.00,  0.00000,  0.00000,  0.00000,  0.00000,1,  10.00,   1,1.0000
    41,    300,'1 ',   0.01278,   0.05633,   0.01544,  110.00,  121.00,  132.00,  0.00000,  0.00000,  0.00000,  0.00000,1,  19.20,   1,1.0000
    50,     60,'1 ',   0.00930,   0.04100,   0.01120,  110.00,  121.00,  132.00,  0.00000,  0.00000,  0.00000,  0.00000,1,  16.70,   1,1.0000
    50,    300,'1 ',   0.01190,   0.08471,   0.02014,  230.00,  253.00,  276.00,  0.00000,  0.00000,  0.00000,  0.00000,1,  33.00,   1,1.0000
    60,     70,'1 ',   0.00580,   0.02560,   0.00700,  110.00,  121.00,  132.00,  0.00000,  0.00000,  0.00000,  0.00000,1,  10.40,   1,1.0000
    60,     80,'1 ',   0.01070,   0.04690,   0.01280,  110.00,  121.00,  132.00,  0.00000,  0.00000,  0.00000,  0.00000,1,  19.10,   1,1.0000
    70,     90,'1 ',   0.00914,   0.04009,   0.01103,  110.00,  121.00,  132.00,  0.00000,  0.00000,  0.00000,  0.00000,1,  16.30,   1,1.0000
    80,    151,'1 ',   0.00650,   0.02850,   0.00780,  110.00,  121.00,  132.00,  0.00000,  0.00000,  0.00000,  0.00000,1,  11.60,   1,1.0000
    90,    151,'1 ',   0.00196,   0.00861,   0.00237,  110.00,  121.00,  132.00,  0.00000,  0.00000,  0.00000,  0.00000,1,   3.50,   1,1.0000
   100,    111,'1 ',   0.00320,   0.01470,   0.00400,  110.00,  121.00,  132.00,  0.00000,  0.00000,  0.00000,  0.00000,1,   6.50,   1,1.0000
   110,    120,'1 ',   0.00140,   0.00905,   0.07216,  380.00,  418.00,  456.00,  0.00000,  0.00000,  0.00000,  0.00000,1,  19.80,   1,1.0000
   110,    280,'1 ',   0.00440,   0.03010,   0.10320,  400.00,  440.00,  480.00,  0.00000,  0.00000,  0.00000,  0.00000,1,  45.00,   1,1.0000
   111,    130,'1 ',   0.00174,   0.00740,   0.00808,  220.00,  242.00,  164.00,  0.00000,  0.00000,  0.00000,  0.00000,1,   6.00,   1,1.0000
   120,    150,'1 ',   0.00047,   0.00285,   0.02270,  250.00,  275.00,  300.00,  0.00000,  0.00000,  0.00000,  0.00000,1,   6.70,   1,1.0000
   120,    200,'1 ',   0.00399,   0.02240,   0.24885,  250.00,  275.00,  300.00,  0.00000,  0.00000,  0.00000,  0.00000,1,  56.50,   1,1.0000
   130,    140,'1 ',   0.00300,   0.01330,   0.00360,  110.00,  121.00,  132.00,  0.00000,  0.00000,  0.00000,  0.00000,1,   5.70,   1,1.0000
   130,    151,'1 ',   0.00480,   0.02090,   0.00580,  110.00,  121.00,  132.00,  0.00000,  0.00000,  0.00000,  0.00000,1,   8.50,   1,1.0000
   140,    151,'1 ',   0.00390,   0.01720,   0.00480,  110.00,  121.00,  132.00,  0.00000,  0.00000,  0.00000,  0.00000,1,   7.00,   1,1.0000
   150,    250,'1 ',   0.02140,   0.11700,   0.23940,  200.00,  220.00,  240.00,  0.00000,  0.00000,  0.00000,  0.00000,1, 130.00,   1,1.0000
   151,    160,'1 ',   0.00900,   0.03930,   0.01080,  110.00,  121.00,  132.00,  0.00000,  0.00000,  0.00000,  0.00000,1,  16.00,   1,1.0000
   151,    170,'1 ',   0.01220,   0.05360,   0.01460,  110.00,  121.00,  132.00,  0.00000,  0.00000,  0.00000,  0.00000,1,  21.20,   1,1.0000
   152,    340,'1 ',   0.00685,   0.01350,   0.00000,   50.00,   55.00,   60.00,  0.00000,  0.00000,  0.00000,  0.00000,1,   0.30,   1,1.0000
   160,    170,'1 ',   0.01070,   0.04720,   0.01300,  110.00,  121.00,  132.00,  0.00000,  0.00000,  0.00000,  0.00000,1,  19.20,   1,1.0000
   170,    180,'1 ',   0.01840,   0.04540,   0.01080,   65.00,   71.50,   78.00,  0.00000,  0.00000,  0.00000,  0.00000,1,  17.30,   1,1.0000
   190,    250,'1 ',   0.00558,   0.04712,   0.15852,  400.00,  440.00,  480.00,  0.00000,  0.00000,  0.00000,  0.00000,1,  67.00,   1,1.0000
   190,    270,'1 ',   0.00100,   0.00844,   0.02839,  400.00,  440.00,  480.00,  0.00000,  0.00000,  0.00000,  0.00000,1,  12.00,   1,1.0000
   200,    210,'1 ',   0.01400,   0.06540,   0.12320,  245.00,  269.50,  294.00,  0.00000,  0.00000,  0.00000,  0.00000,1,  70.00,   1,1.0000
   200,    250,'1 ',   0.01120,   0.06120,   0.12520,  200.00,  220.00,  240.00,  0.00000,  0.00000,  0.00000,  0.00000,1,  68.00,   1,1.0000
   210,    220,'1 ',   0.00730,   0.03920,   0.08380,  300.00,  330.00,  360.00,  0.00000,  0.00000,  0.00000,  0.00000,1,  44.50,   1,1.0000
   210,    230,'1 ',   0.00120,   0.00640,   0.01260,  345.00,  379.50,  414.00,  0.00000,  0.00000,  0.00000,  0.00000,1,   7.00,   1,1.0000
   220,    330,'1 ',   0.00344,   0.02200,   0.03979,  345.00,  379.50,  414.00,  0.00000,  0.00000,  0.00000,  0.00000,1,  22.96,   1,1.0000
   220,   1020,'1 ',   0.02381,   0.15512,   0.32676,  200.00,  220.00,  240.00,  0.00000,  0.00000,  0.00000,  0.00000,1, 176.07,   1,1.0000
   230,    240,'1 ',   0.00050,   0.00300,   0.00540,  200.00,  220.00,  240.00,  0.00000,  0.00000,  0.00000,  0.00000,1,   3.00,   1,1.0000
   230,    250,'1 ',   0.00150,   0.00850,   0.01640,  200.00,  220.00,  240.00,  0.00000,  0.00000,  0.00000,  0.00000,1,   9.20,   1,1.0000
   250,    260,'1 ',   0.00540,   0.03450,   0.06240,  345.00,  379.50,  414.00,  0.00000,  0.00000,  0.00000,  0.00000,1,  36.00,   1,1.0000
   260,    330,'1 ',   0.00148,   0.00943,   0.01706,  345.00,  379.50,  414.00,  0.00000,  0.00000,  0.00000,  0.00000,1,   9.84,   1,1.0000
   261,    350,'1 ',   0.04200,   0.08250,   0.00013,   31.80,   35.00,   38.20,  0.00000,  0.00000,  0.00000,  0.00000,1,   2.50,   1,1.0000
   270,    280,'1 ',   0.00240,   0.01770,   0.05340,  400.00,  440.00,  480.00,  0.00000,  0.00000,  0.00000,  0.00000,1,  24.00,   1,1.0000
   290,    300,'1 ',   0.00599,   0.02640,   0.00724,  110.00,  121.00,  132.00,  0.00000,  0.00000,  0.00000,  0.00000,1,   9.20,   1,1.0000
   300,    310,'1 ',   0.00948,   0.04180,   0.02292,  120.00,  132.00,  144.00,  0.00000,  0.00000,  0.00000,  0.00000,1,  28.50,   1,1.0000
   310,    320,'1 ',   0.01230,   0.05410,   0.05940,  180.00,  198.00,  216.00,  0.00000,  0.00000,  0.00000,  0.00000,1,  48.00,   1,1.0000
  1010,   1020,'1 ',   0.00450,   0.08800,   0.00000,  500.00,  500.00,  500.00,  0.00000,  0.00000,  0.00000,  0.00000,1, 176.07,   2,1.0000
  3020,   3030,'1 ',   0.00500,   0.10000,   0.00000,  310.00,  310.00,  310.00,  0.00000,  0.00000,  0.00000,  0.00000,1,   0.00,   3,1.0000
0 / END OF BRANCH DATA, BEGIN TRANSFORMER DATA
  1010,     1,     0,'1 ',1,1,1,   0.00000,   0.00000,2,'            ',1,   4,1.0000
   0.00000,   0.00050,   100.00
0.97850,   0.000,   0.000,  4000.00,  4000.00,  4000.00, 0,      0, 1.12500, 0.97500, 1.12500, 0.97500,   7, 0, 0.00000, 0.00000
1.00000,   0.000
    10,    11,     0,'1 ',1,1,1,   0.00000,   0.00000,2,'            ',1,   6,1.0000
   0.00000,   0.19825,   100.00
1.00000,   0.000,   0.000,   150.00,   150.00,   150.00, 0,      0, 1.12500, 0.97500, 1.12500, 0.97500,   5, 0, 0.00000, 0.00000
1.00000,   0.000
    20,    21,     0,'1 ',1,1,1,   0.00000,   0.00000,2,'            ',1,   6,1.0000
   0.00000,   0.19825,   100.00
1.00000,   0.000,   0.000,   150.00,   150.00,   150.00, 0,      0, 1.12500, 0.97500, 1.12500, 0.97500,   5, 0, 0.00000, 0.00000
1.00000,   0.000
    31,    30,     0,'1 ',1,1,1,   0.00000,   0.00000,2,'            ',1,   6,1.0000
   0.00000,   0.03030,   100.00
1.00000,   0.000,   0.000,   150.00,   150.00,   150.00, 0,      0, 1.12500, 0.97500, 1.12500, 0.97500,   5, 0, 0.00000, 0.00000
1.00000,   0.000
    31,    32,     0,'1 ',1,1,1,   0.00000,   0.00000,2,'            ',1,   6,1.0000
   0.00000,   0.39900,   100.00
1.00000,   0.000,   0.000,   150.00,   150.00,   150.00, 0,      0, 1.12500, 0.97500, 1.12500, 0.97500,   5, 0, 0.00000, 0.00000
1.00000,   0.000
    31,    38,     0,'1 ',1,1,1,   0.00000,   0.00000,2,'            ',1,   5,1.0000
   0.00000,   0.25400,   100.00
1.00000,   0.000,   0.000,    40.00,    44.00,    48.00, 0,      0, 1.07500, 0.97500, 1.07500, 0.97500,   5, 0, 0.00000, 0.00000
1.00000,   0.000
    31,    40,     0,'1 ',1,1,1,   0.00000,   0.00000,2,'            ',1,   5,1.0000
   0.00000,   0.24000,   100.00
1.00000,   0.000,   0.000,    40.00,    44.00,    48.00, 0,      0, 1.10000, 0.97536, 1.10000, 0.90000,   6, 0, 0.00000, 0.00000
1.00000,   0.000
    41,    42,     0,'1 ',1,1,1,   0.00000,   0.00000,2,'            ',1,   6,1.0000
   0.00000,   0.71000,   100.00
1.00000,   0.000,   0.000,   150.00,   150.00,   150.00, 0,      0, 1.12500, 0.97500, 1.12500, 0.97500,   5, 0, 0.00000, 0.00000
1.00000,   0.000
    41,    44,     0,'1 ',1,1,1,   0.00000,   0.00000,2,'            ',1,   5,1.0000
   0.00000,   0.20680,   100.00
1.02500,   0.000,   0.000,    65.00,    71.50,    78.00, 0,      0, 1.12500, 0.97500, 1.12500, 0.97500,   7, 0, 0.00000, 0.00000
1.00000,   0.000
    41,    45,     0,'1 ',1,1,1,   0.00000,   0.00000,2,'            ',1,   5,1.0000
   0.00000,   0.20520,   100.00
1.02500,   0.000,   0.000,    65.00,    71.50,    78.00, 0,      0, 1.12500, 0.97500, 1.12500, 0.97500,   7, 0, 0.00000, 0.00000
1.00000,   0.000
    41,    46,     0,'1 ',1,1,1,   0.00000,   0.00000,2,'            ',1,   5,1.0000
   0.00000,   0.20750,   100.00
1.02540,   0.000,   0.000,    46.00,    50.60,    55.20, 0,      0, 1.12536, 0.97536, 1.12536, 0.97536,   7, 0, 0.00000, 0.00000
1.00000,   0.000
    50,    51,     0,'1 ',1,1,1,   0.00000,   0.00000,2,'            ',1,   6,1.0000
   0.00000,   0.12033,   100.00
1.00000,   0.000,   0.000,   150.00,   150.00,   150.00, 0,      0, 1.12500, 0.97500, 1.12500, 0.97500,   5, 0, 0.00000, 0.00000
1.00000,   0.000
    60,    61,     0,'1 ',1,1,1,   0.00000,   0.00000,2,'            ',1,   6,1.0000
   0.00000,   0.19866,   100.00
1.00000,   0.000,   0.000,   150.00,   150.00,   150.00, 0,      0, 1.12500, 0.97500, 1.12500, 0.97500,   5, 0, 0.00000, 0.00000
1.00000,   0.000
    70,    71,     0,'1 ',1,1,1,   0.00000,   0.00000,2,'            ',1,   6,1.0000
   0.00000,   0.11045,   100.00
1.00000,   0.000,   0.000,   150.00,   150.00,   150.00, 0,      0, 1.12500, 0.97500, 1.12500, 0.97500,   5, 0, 0.00000, 0.00000
1.00000,   0.000
    80,    81,     0,'1 ',1,1,1,   0.00000,   0.00000,2,'            ',1,   6,1.0000
   0.00000,   0.10845,   100.00
1.00000,   0.000,   0.000,   150.00,   150.00,   150.00, 0,      0, 1.12500, 0.97500, 1.12500, 0.97500,   5, 0, 0.00000, 0.00000
1.00000,   0.000
    90,    91,     0,'1 ',1,1,1,   0.00000,   0.00000,2,'            ',1,   6,1.0000
   0.00000,   0.18334,   100.00
1.00000,   0.000,   0.000,   150.00,   150.00,   150.00, 0,      0, 1.12500, 0.97500, 1.12500, 0.97500,   5, 0, 0.00000, 0.00000
1.00000,   0.000
   100,   102,     0,'1 ',1,1,1,   0.00000,   0.00000,2,'            ',1,   6,1.0000
   0.00000,   0.25400,   100.00
1.00000,   0.000,   0.000,   150.00,   150.00,   150.00, 0,      0, 1.12500, 0.97500, 1.12500, 0.97500,   5, 0, 0.00000, 0.00000
1.00000,   0.000
   100,   105,     0,'1 ',1,1,1,   0.00000,   0.00000,2,'            ',1,   6,1.0000
   0.00000,   0.19830,   100.00
1.00000,   0.000,   0.000,   150.00,   150.00,   150.00, 0,      0, 1.12500, 0.97500, 1.12500, 0.97500,   5, 0, 0.00000, 0.00000
1.00000,   0.000
   111,   110,     0,'1 ',1,1,1,   0.00000,   0.00000,2,'            ',1,   6,1.0000
   0.00000,   0.02100,   100.00
1.00000,   0.000,   0.000,   150.00,   150.00,   150.00, 0,      0, 1.12500, 0.97500, 1.12500, 0.97500,   5, 0, 0.00000, 0.00000
1.00000,   0.000
   110,   112,     0,'1 ',1,1,1,   0.00000,   0.00000,2,'            ',1,   6,1.0000
   0.00000,   0.36300,   100.00
1.00000,   0.000,   0.000,   150.00,   150.00,   150.00, 0,      0, 1.12500, 0.97500, 1.12500, 0.97500,   5, 0, 0.00000, 0.00000
1.00000,   0.000
   120,   121,     0,'1 ',1,1,1,   0.00000,   0.00000,2,'            ',1,   6,1.0000
   0.00000,   0.35700,   100.00
1.00000,   0.000,   0.000,   150.00,   150.00,   150.00, 0,      0, 1.12500, 0.97500, 1.12500, 0.97500,   5, 0, 0.00000, 0.00000
1.00000,   0.000
   130,   131,     0,'1 ',1,1,1,   0.00000,   0.00000,2,'            ',1,   6,1.0000
   0.00000,   0.13300,   100.00
1.00000,   0.000,   0.000,   150.00,   150.00,   150.00, 0,      0, 1.12500, 0.97500, 1.12500, 0.97500,   5, 0, 0.00000, 0.00000
1.00000,   0.000
   131,   133,     0,'1 ',1,1,1,   0.00000,   0.00000,2,'            ',1,   5,1.0000
   0.00000,   0.94000,   100.00
1.00680,   0.000,   0.000,     7.50,     8.30,     9.00, 0,      0, 1.05928, 0.95478, 1.10000, 0.90000,   5, 0, 0.00000, 0.00000
1.00000,   0.000
   131,   134,     0,'1 ',1,1,1,   0.00000,   0.00000,2,'            ',1,   5,1.0000
   0.00000,   0.94000,   100.00
1.00680,   0.000,   0.000,     7.50,     8.30,     9.00, 0,      0, 1.05928, 0.95478, 1.10000, 0.90000,   5, 0, 0.00000, 0.00000
1.00000,   0.000
   131,   135,     0,'1 ',1,1,1,   0.00000,   0.00000,2,'            ',1,   5,1.0000
   0.00000,   0.94000,   100.00
1.00680,   0.000,   0.000,     7.50,     8.30,     9.00, 0,      0, 1.05928, 0.95478, 1.10000, 0.90000,   5, 0, 0.00000, 0.00000
1.00000,   0.000
   140,   141,     0,'1 ',1,1,1,   0.00000,   0.00000,2,'            ',1,   6,1.0000
   0.00000,   0.13300,   100.00
1.00000,   0.000,   0.000,   150.00,   150.00,   150.00, 0,      0, 1.12500, 0.97500, 1.12500, 0.97500,   5, 0, 0.00000, 0.00000
1.00000,   0.000
   151,   150,     0,'1 ',1,1,1,   0.00000,   0.00000,2,'            ',1,   6,1.0000
   0.00000,   0.01716,   100.00
1.00000,   0.000,   0.000,   300.00,   320.00,   333.00, 0,      0, 1.12500, 0.97500, 1.12500, 0.97500,   5, 0, 0.00000, 0.00000
1.00000,   0.000
   151,   152,     0,'1 ',1,1,1,   0.00000,   0.00000,2,'            ',1,   6,1.0000
   0.00000,   0.14480,   100.00
1.00000,   0.000,   0.000,   150.00,   150.00,   150.00, 0,      0, 1.12500, 0.97500, 1.12500, 0.97500,   5, 0, 0.00000, 0.00000
1.00000,   0.000
   160,   161,     0,'1 ',1,1,1,   0.00000,   0.00000,2,'            ',1,   6,1.0000
   0.00000,   0.14480,   100.00
1.00000,   0.000,   0.000,   150.00,   150.00,   150.00, 0,      0, 1.12500, 0.97500, 1.12500, 0.97500,   5, 0, 0.00000, 0.00000
1.00000,   0.000
   170,   171,     0,'1 ',1,1,1,   0.00000,   0.00000,2,'            ',1,   6,1.0000
   0.00000,   0.25400,   100.00
1.00000,   0.000,   0.000,   150.00,   150.00,   150.00, 0,      0, 1.12500, 0.97500, 1.12500, 0.97500,   5, 0, 0.00000, 0.00000
1.00000,   0.000
   170,   172,     0,'1 ',1,1,1,   0.00000,   0.00000,2,'            ',1,   5,1.0000
   0.00000,   0.17855,   100.00
1.02500,   0.000,   0.000,    65.00,    71.50,    78.00, 0,      0, 1.12500, 0.97464, 1.12500, 0.97464,   7, 0, 0.00000, 0.00000
1.00000,   0.000
   170,   173,     0,'1 ',1,1,1,   0.00000,   0.00000,2,'            ',1,   5,1.0000
   0.00000,   0.20745,   100.00
1.02500,   0.000,   0.000,    65.00,    71.50,    78.00, 0,      0, 1.12500, 1.00000, 1.12500, 1.00000,   6, 0, 0.00000, 0.00000
1.00000,   0.000
   170,   174,     0,'1 ',1,1,1,   0.00000,   0.00000,2,'            ',1,   5,1.0000
   0.00000,   0.20545,   100.00
1.02500,   0.000,   0.000,    65.00,    71.50,    78.00, 0,      0, 1.12500, 1.00000, 1.12500, 1.00000,   6, 0, 0.00000, 0.00000
1.00000,   0.000
   180,   181,     0,'1 ',1,1,1,   0.00000,   0.00000,2,'            ',1,   6,1.0000
   0.00000,   0.14480,   100.00
1.00000,   0.000,   0.000,   150.00,   150.00,   150.00, 0,      0, 1.12500, 0.97500, 1.12500, 0.97500,   5, 0, 0.00000, 0.00000
1.00000,   0.000
   190,   191,     0,'1 ',1,1,1,   0.00000,   0.00000,2,'            ',1,   6,1.0000
   0.00000,   0.36000,   100.00
1.00000,   0.000,   0.000,   150.00,   150.00,   150.00, 0,      0, 1.12500, 0.97500, 1.12500, 0.97500,   5, 0, 0.00000, 0.00000
1.00000,   0.000
   193,   190,     0,'1 ',1,1,1,   0.00000,   0.00000,1,'            ',1,   5,1.0000
   0.00000,   0.24550,   100.00
1.00000,   0.000,   0.000,    50.00,    55.00,    60.00, 0,      0, 1.12500, 0.97500, 1.10000, 0.90000,   7, 0, 0.00000, 0.00000
1.00000,   0.000
   201,   200,     0,'1 ',1,1,1,   0.00000,   0.00000,2,'            ',1,   6,1.0000
   0.00000,   0.06000,   100.00
1.00000,   0.000,   0.000,   150.00,   150.00,   150.00, 0,      0, 1.12500, 0.97500, 1.12500, 0.97500,   5, 0, 0.00000, 0.00000
1.00000,   0.000
   201,   202,     0,'1 ',1,1,1,   0.00000,   0.00000,2,'            ',1,   6,1.0000
   0.00000,   0.17000,   100.00
1.00000,   0.000,   0.000,   150.00,   150.00,   150.00, 0,      0, 1.12500, 0.97500, 1.12500, 0.97500,   5, 0, 0.00000, 0.00000
1.00000,   0.000
   211,   210,     0,'1 ',1,1,1,   0.00000,   0.00000,2,'            ',1,   6,1.0000
   0.00000,   0.07167,   100.00
1.00000,   0.000,   0.000,   150.00,   150.00,   150.00, 0,      0, 1.12500, 0.97500, 1.12500, 0.97500,   5, 0, 0.00000, 0.00000
1.00000,   0.000
   210,   212,     0,'1 ',1,1,1,   0.00000,   0.00000,2,'            ',1,   6,1.0000
   0.00000,   0.38500,   100.00
1.00000,   0.000,   0.000,   150.00,   150.00,   150.00, 0,      0, 1.12500, 0.97500, 1.12500, 0.97500,   5, 0, 0.00000, 0.00000
1.00000,   0.000
   220,   221,     0,'1 ',1,1,1,   0.00000,   0.00000,2,'            ',1,   6,1.0000
   0.00000,   0.35267,   100.00
1.00000,   0.000,   0.000,   150.00,   150.00,   150.00, 0,      0, 1.12500, 0.97500, 1.12500, 0.97500,   5, 0, 0.00000, 0.00000
1.00000,   0.000
   230,   231,     0,'1 ',1,1,1,   0.00000,   0.00000,2,'            ',1,   6,1.0000
   0.00000,   0.35733,   100.00
1.00000,   0.000,   0.000,   150.00,   150.00,   150.00, 0,      0, 1.12500, 0.97500, 1.12500, 0.97500,   5, 0, 0.00000, 0.00000
1.00000,   0.000
   230,   233,     0,'1 ',1,1,1,   0.00000,   0.00000,2,'            ',1,   5,1.0000
   0.00000,   0.17397,   100.00
1.00000,   0.000,   0.000,    79.00,    86.90,    94.80, 0,      0, 1.12500, 1.00000, 1.10000, 0.90000,   6, 0, 0.00000, 0.00000
1.00000,   0.000
   230,   234,     0,'1 ',1,1,1,   0.00000,   0.00000,2,'            ',1,   5,1.0000
   0.00000,   0.17162,   100.00
1.00000,   0.000,   0.000,    79.00,    86.90,    94.80, 0,      0, 1.12500, 1.00000, 1.10000, 0.90000,   6, 0, 0.00000, 0.00000
1.00000,   0.000
   230,   235,     0,'1 ',1,1,1,   0.00000,   0.00000,2,'            ',1,   5,1.0000
   0.00000,   0.17235,   100.00
1.00000,   0.000,   0.000,    79.00,    86.90,    94.80, 0,      0, 1.12500, 1.00000, 1.10000, 0.90000,   6, 0, 0.00000, 0.00000
1.00000,   0.000
   240,   241,     0,'1 ',1,1,1,   0.00000,   0.00000,2,'            ',1,   5,1.0000
   0.00000,   0.38500,   100.00
1.02500,   0.000,   0.000,    37.00,    40.70,    44.40, 0,      0, 1.12500, 0.97500, 1.10000, 0.90000,   7, 0, 0.00000, 0.00000
1.00000,   0.000
   250,   251,     0,'1 ',1,1,1,   0.00000,   0.00000,2,'            ',1,   6,1.0000
   0.00000,   0.39900,   100.00
1.00000,   0.000,   0.000,   150.00,   150.00,   150.00, 0,      0, 1.12500, 0.97500, 1.12500, 0.97500,   5, 0, 0.00000, 0.00000
1.00000,   0.000
   250,   252,     0,'1 ',1,1,1,   0.00000,   0.00000,2,'            ',1,   6,1.0000
   0.00000,   0.37000,   100.00
1.00000,   0.000,   0.000,   150.00,   150.00,   150.00, 0,      0, 1.12500, 0.97500, 1.12500, 0.97500,   5, 0, 0.00000, 0.00000
1.00000,   0.000
   250,   255,     0,'1 ',1,1,1,   0.00000,   0.00000,2,'            ',1,   5,1.0000
   0.00000,   0.14145,   100.00
1.00000,   0.000,   0.000,    71.00,    78.10,    85.20, 0,      0, 1.12500, 1.00000, 1.10000, 0.90000,   6, 0, 0.00000, 0.00000
1.00000,   0.000
   250,   256,     0,'1 ',1,1,1,   0.00000,   0.00000,2,'            ',1,   5,1.0000
   0.00000,   0.14113,   100.00
1.00000,   0.000,   0.000,    71.00,    78.10,    85.20, 0,      0, 1.12500, 1.00000, 1.10000, 0.90000,   6, 0, 0.00000, 0.00000
1.00000,   0.000
   250,   257,     0,'1 ',1,1,1,   0.00000,   0.00000,2,'            ',1,   5,1.0000
   0.00000,   0.14161,   100.00
1.00000,   0.000,   0.000,    71.00,    78.10,    85.20, 0,      0, 1.12500, 1.00000, 1.10000, 0.90000,   6, 0, 0.00000, 0.00000
1.00000,   0.000
   260,   261,     0,'1 ',1,1,1,   0.00000,   0.00000,2,'            ',1,   6,1.0000
   0.00000,   0.48750,   100.00
1.00000,   0.000,   0.000,   150.00,   150.00,   150.00, 0,      0, 1.12500, 0.97500, 1.12500, 0.97500,   5, 0, 0.00000, 0.00000
1.00000,   0.000
   260,   263,     0,'1 ',1,1,1,   0.00000,   0.00000,2,'            ',1,   5,1.0000
   0.00000,   0.20052,   100.00
1.00000,   0.000,   0.000,    65.00,    71.50,    78.00, 0,      0, 1.12500, 1.00000, 1.10000, 1.00000,   6, 0, 0.00000, 0.00000
1.00000,   0.000
   260,   264,     0,'1 ',1,1,1,   0.00000,   0.00000,2,'            ',1,   5,1.0000
   0.00000,   0.19845,   100.00
1.00000,   0.000,   0.000,    65.10,    71.60,    78.10, 0,      0, 1.12500, 1.00000, 1.10000, 1.00000,   6, 0, 0.00000, 0.00000
1.00000,   0.000
   260,   265,     0,'1 ',1,1,1,   0.00000,   0.00000,2,'            ',1,   5,1.0000
   0.00000,   0.30000,   100.00
1.00000,   0.000,   0.000,    40.00,    44.00,    48.00, 0,      0, 1.12500, 1.00000, 1.05000, 0.95000,   5, 0, 0.00000, 0.00000
1.00000,   0.000
   270,   271,     0,'1 ',1,1,1,   0.00000,   0.00000,2,'            ',1,   6,1.0000
   0.00000,   0.16133,   100.00
1.00000,   0.000,   0.000,   150.00,   150.00,   150.00, 0,      0, 1.12500, 0.97500, 1.12500, 0.97500,   5, 0, 0.00000, 0.00000
1.00000,   0.000
   280,   281,     0,'1 ',1,1,1,   0.00000,   0.00000,2,'            ',1,   6,1.0000
   0.00000,   0.35600,   100.00
1.00000,   0.000,   0.000,   150.00,   150.00,   150.00, 0,      0, 1.12500, 0.97500, 1.12500, 0.97500,   5, 0, 0.00000, 0.00000
1.00000,   0.000
   280,   282,     0,'1 ',1,1,1,   0.00000,   0.00000,2,'            ',1,   6,1.0000
   0.00000,   0.38089,   100.00
1.00000,   0.000,   0.000,   150.00,   150.00,   150.00, 0,      0, 1.12500, 0.97500, 1.12500, 0.97500,   5, 0, 0.00000, 0.00000
1.00000,   0.000
   280,   285,     0,'1 ',1,1,1,   0.00000,   0.00000,2,'            ',1,   5,1.0000
   0.00000,   0.42125,   100.00
1.00000,   0.000,   0.000,    28.00,    30.80,    33.60, 0,      0, 1.12500, 0.97500, 1.10000, 0.90000,   7, 0, 0.00000, 0.00000
1.00000,   0.000
   280,   286,     0,'1 ',1,1,1,   0.00000,   0.00000,2,'            ',1,   5,1.0000
   0.00000,   0.46233,   100.00
1.00000,   0.000,   0.000,    40.00,    44.00,    48.00, 0,      0, 1.12500, 0.97500, 1.10000, 0.90000,   7, 0, 0.00000, 0.00000
1.00000,   0.000
   290,   291,     0,'1 ',1,1,1,   0.00000,   0.00000,2,'            ',1,   6,1.0000
   0.00000,   0.39433,   100.00
1.00000,   0.000,   0.000,   150.00,   150.00,   150.00, 0,      0, 1.12500, 0.97500, 1.12500, 0.97500,   5, 0, 0.00000, 0.00000
1.00000,   0.000
   300,   301,     0,'1 ',1,1,1,   0.00000,   0.00000,2,'            ',1,   6,1.0000
   0.00000,   0.39433,   100.00
1.00000,   0.000,   0.000,   150.00,   150.00,   150.00, 0,      0, 1.12500, 0.97500, 1.12500, 0.97500,   5, 0, 0.00000, 0.00000
1.00000,   0.000
   300,   303,     0,'1 ',1,1,1,   0.00000,   0.00000,2,'            ',1,   5,1.0000
   0.00000,   0.11886,   100.00
1.02500,   0.000,   0.000,    82.00,    90.20,    98.40, 0,      0, 1.12500, 0.97500, 1.12500, 0.97500,   7, 0, 0.00000, 0.00000
1.00000,   0.000
   300,   304,     0,'1 ',1,1,1,   0.00000,   0.00000,2,'            ',1,   5,1.0000
   0.00000,   0.11800,   100.00
1.02500,   0.000,   0.000,    82.00,    90.20,    98.40, 0,      0, 1.12500, 0.97500, 1.12500, 0.97500,   7, 0, 0.00000, 0.00000
1.00000,   0.000
   300,   305,     0,'1 ',1,1,1,   0.00000,   0.00000,2,'            ',1,   5,1.0000
   0.00000,   0.11886,   100.00
1.02500,   0.000,   0.000,    82.00,    90.20,    98.40, 0,      0, 1.12500, 0.97500, 1.12500, 0.97500,   7, 0, 0.00000, 0.00000
1.00000,   0.000
   310,   311,     0,'1 ',1,1,1,   0.00000,   0.00000,2,'            ',1,   6,1.0000
   0.00000,   0.16133,   100.00
1.00000,   0.000,   0.000,   150.00,   150.00,   150.00, 0,      0, 1.12500, 0.97500, 1.12500, 0.97500,   5, 0, 0.00000, 0.00000
1.00000,   0.000
   310,   313,     0,'1 ',1,1,1,   0.00000,   0.00000,2,'            ',1,   5,1.0000
   0.00000,   0.48650,   100.00
1.00000,   0.000,   0.000,    30.00,     0.00,     0.00, 0,      0, 1.12500, 0.97500, 1.12500, 0.97500,   7, 0, 0.00000, 0.00000
1.00000,   0.000
   310,   314,     0,'1 ',1,1,1,   0.00000,   0.00000,2,'            ',1,   5,1.0000
   0.00000,   0.48650,   100.00
1.00000,   0.000,   0.000,    30.00,     0.00,     0.00, 0,      0, 1.12500, 0.97500, 1.12500, 0.97500,   7, 0, 0.00000, 0.00000
1.00000,   0.000
   320,   321,     0,'1 ',1,1,1,   0.00000,   0.00000,2,'            ',1,   6,1.0000
   0.00000,   0.18425,   100.00
1.00000,   0.000,   0.000,   150.00,   150.00,   150.00, 0,      0, 1.12500, 0.97500, 1.12500, 0.97500,   5, 0, 0.00000, 0.00000
1.00000,   0.000
   320,   325,     0,'1 ',1,1,1,   0.00000,   0.00000,2,'            ',1,   5,1.0000
   0.00000,   0.28929,   100.00
1.00000,   0.000,   0.000,    42.00,    46.20,    50.40, 0,      0, 1.10000, 0.97500, 1.10000, 0.90000,   6, 0, 0.00000, 0.00000
1.00000,   0.000
   320,   326,     0,'1 ',1,1,1,   0.00000,   0.00000,2,'            ',1,   5,1.0000
   0.00000,   0.28952,   100.00
1.00000,   0.000,   0.000,    42.00,    46.20,    50.40, 0,      0, 1.10000, 0.97500, 1.10000, 0.90000,   6, 0, 0.00000, 0.00000
1.00000,   0.000
   320,   327,     0,'1 ',1,1,1,   0.00000,   0.00000,2,'            ',1,   5,1.0000
   0.00000,   0.22114,   100.00
1.00000,   0.000,   0.000,    53.00,    58.30,    63.60, 0,      0, 1.05000, 0.85000, 1.10000, 0.90000,   9, 0, 0.00000, 0.00000
1.00000,   0.000
   340,   341,     0,'1 ',1,1,1,   0.00000,   0.00000,2,'            ',1,   5,1.0000
   0.00000,   0.34000,   100.00
1.00000,   0.000,   0.000,    25.00,    27.50,    30.00, 0,      0, 1.09855, 0.97391, 1.10000, 0.97391,   6, 0, 0.00000, 0.00000
1.00000,   0.000
   340,   342,     0,'1 ',1,1,1,   0.00000,   0.00000,2,'            ',1,   5,1.0000
   0.00000,   0.34000,   100.00
1.00000,   0.000,   0.000,    25.00,    27.50,    30.00, 0,      0, 1.09855, 0.97391, 1.10000, 0.97391,   6, 0, 0.00000, 0.00000
1.00000,   0.000
   350,   351,     0,'1 ',1,1,1,   0.00000,   0.00000,2,'MIR-5       ',1,   5,1.0000
   0.00000,   0.47368,   100.00
1.02500,   0.000,   0.000,    25.30,    27.80,    30.40, 0,      0, 1.12500, 1.00000, 1.10000, 1.00000,   6, 0, 0.00000, 0.00000
1.00000,   0.000
  3030,  3010,     0,'1 ',1,1,1,   0.00000,   0.00000,2,'            ',1,   6,1.0000
   0.00000,   0.00153,   100.00
1.00000,   0.000,   0.000,  1400.00,  1400.00,  1400.00, 0,      0, 1.12500, 0.97500, 1.12500, 0.97500,   7, 0, 0.00000, 0.00000
1.00000,   0.000
0 / END OF TRANSFORMER DATA, BEGIN AREA DATA
   1,     1,     0.000,     1.000,'NORTE       '
0 / END OF AREA DATA, BEGIN TWO-TERMINAL DC DATA
0 / END OF TWO-TERMINAL DC DATA, BEGIN VSC DC LINE DATA
0 / END OF VSC DC LINE DATA, BEGIN SWITCHED SHUNT DATA
0 / END OF SWITCHED SHUNT DATA, BEGIN IMPEDANCE CORRECTION DATA
0 / END OF IMPEDANCE CORRECTION DATA, BEGIN MULTI-TERMINAL DC DATA
0 / END OF MULTI-TERMINAL DC DATA, BEGIN MULTI-SECTION LINE DATA
0 / END OF MULTI-SECTION LINE DATA, BEGIN ZONE DATA
   1,'CENTRAL     '
0 / END OF ZONE DATA, BEGIN INTER-AREA TRANSFER DATA
0 / END OF INTER-AREA TRANSFER DATA, BEGIN OWNER DATA
   1,'AEIE        '
0 / END OF OWNER DATA, BEGIN FACTS DEVICE DATA
0 / END OF FACTS DEVICE DATA
